<routes>

    <vType id="car_slow" accel="2.6" decel="4.5" sigma="0.5" length="5" maxSpeed="20" color="1,0,0" guiShape="passenger"/>
    <vType id="car_medium" accel="2.6" decel="4.5" sigma="0.5" length="5" maxSpeed="30" color="0,1,0" guiShape="passenger"/>
    <vType id="car_fast" accel="2.6" decel="4.5" sigma="0.5" length="5" maxSpeed="40" color="0,0,1" guiShape="passenger"/>
    
    <vType id="bus" accel="1.5" decel="3.0" sigma="0.5" length="12" maxSpeed="25" color="1,1,0" guiShape="bus"/>
    <vType id="truck" accel="1.0" decel="2.0" sigma="0.5" length="15" maxSpeed="20" color="0,0.5,1" guiShape="truck"/>
    <vType id="bike" accel="1.2" decel="3.0" sigma="0.5" length="2" maxSpeed="15" color="1,0,1" guiShape="bicycle"/>

    <flow id="0" type="car_slow" from="17to1" to="13to25" begin="0" end="180" period="1" departSpeed="max" departPos="base" departLane="best"/>
    <flow id="1" type="bus" from="18to2" to="14to26" begin="0" end="180" period="1" departSpeed="max" departPos="base" departLane="best"/>
    <flow id="2" type="car_medium" from="19to3" to="15to27" begin="0" end="180" period="1" departSpeed="max" departPos="base" departLane="best"/>
    <flow id="3" type="bike" from="23to12" to="15to31" begin="0" end="180" period="1" departSpeed="max" departPos="base" departLane="best"/>

    <flow id="4" type="bus" from="20to0" to="3to28" begin="16" end="180" period="1" departSpeed="max" departPos="base" departLane="best"/>
    <flow id="5" type="bike" from="22to8" to="11to30" begin="16" end="180" period="1" departSpeed="max" departPos="base" departLane="best"/>
    <flow id="6" type="truck" from="22to8" to="11to30" begin="16" end="180" period="1" departSpeed="max" departPos="base" departLane="best"/>
    <flow id="7" type="bike" from="16to0" to="12to24" begin="16" end="180" period="1" departSpeed="max" departPos="base" departLane="best"/>

    <flow id="8" type="car_fast" from="21to4" to="7to29" begin="181" end="250" period="1" departSpeed="max" departPos="base" departLane="best"/>
    <flow id="9" type="truck" from="19to3" to="15to27" begin="181" end="250" period="1" departSpeed="max" departPos="base" departLane="best"/>
    <flow id="10" type="bike" from="23to12" to="15to31" begin="181" end="250" period="1" departSpeed="max" departPos="base" departLane="best"/>
    <flow id="11" type="car_slow" from="20to0" to="3to28" begin="181" end="250" period="1" departSpeed="max" departPos="base" departLane="best"/>

    <flow id="12" type="car_medium" from="16to0" to="12to24" begin="181" end="250" period="1" departSpeed="max" departPos="base" departLane="best"/>
    <flow id="13" type="bus" from="23to12" to="15to31" begin="181" end="250" period="1" departSpeed="max" departPos="base" departLane="best"/>
    <flow id="14" type="truck" from="17to1" to="13to25" begin="181" end="250" period="1" departSpeed="max" departPos="base" departLane="best"/>
    <flow id="15" type="car_slow" from="22to8" to="11to30" begin="181" end="250" period="1" departSpeed="max" departPos="base" departLane="best"/>

</routes>
